Angle Stability/modified_14_bus_system.m
%% Bus Connections
Bus.con = [ ...
%     No.    Vb     Vi     di     Ar    Re 
       1     69      1      0      4     1;
       2     69      1      0      4     1;
       3     69      1      0      4     1;
       4     69      1      0      4     1;
       5     69      1      0      4     1;
       6   13.8      1      0      2     1;
       7     18      1      0      3     1;
       8   13.8      1      0      2     1;
       9   13.8      1      0      2     1;
      10   13.8      1      0      2     1;
      11   13.8      1      0      2     1;
      12   13.8      1      0      2     1;
      13   13.8      1      0      2     1;
];

%% Line Connections
Line.con = [ ...
%  Fr   To    Pb    Vb     Fq   Li     -             r         x          b   -     -    Im    Pm    Sm     u   
    2    5    100   69     60    0     0     0.05410250  0.1651860  0.03230   0     0     0     0     0     1;
    6    11   100   13.8   60    0     0     0.14011740  0.2916234  0         0     0     0     0     0     1;
    11   12   100   13.8   60    0     0     0.25184880  0.2278632  0         0     0     0     0     0     1;
    6    12   100   13.8   60    0     0     0.07541100  0.1485078  0         0     0     0     0     0     1;
    6    10   100   13.8   60    0     0     0.07218480  0.1511640  0         0     0     0     0     0     1;
    10   6    100   13.8   60    0     0     0.06235800  0.1459732  0         0     0     0     0     0     1;
    10   9    100   13.8   60    0     0     0.02417560  0.0642200  0         0     0     0     0     0     1;
    8    9    100   13.8   60    0     0     0.09660360  0.2054888  0         0     0     0     0     0     1;
    8    13   100   13.8   60    0     0     0.09660360  0.2054888  0         0     0     0     0     0     1;
    13   12   100   13.8   60    0     0     0.12990680  0.2644952  0         0     0     0     0     0     1;
    1    2    100   69     60    0     0     0.06365950  0.1624785  0.03287   0     0     0     0     0     1;
    2    3    100   69     60    0     0     0.04464050  0.1880715  0.04161   0     0     0     0     0     1;
    3    4    100   69     60    0     0     0.06365950  0.1624785  0.03287   0     0     0     0     0     1;
    1    5    100   69     60    0     0     0.05132850  0.2118880  0.04674   0     0     0     0     0     1;
    5    4    100   69     60    0     0     0.01268250  0.0400045  0.01216   0     0     0     0     0     1;
    2    4    100   69     60    0     0     0.05520450  0.1675040  0.03553   0     0     0     0     0     1;
    5    6    100   69     60    0     5     0           0.2394190  0         0.932 0     0     0     0     1;
    4    8    100   69     60    0     5     0           0.5283710  0         0.969 0     0     0     0     1;
];


%% Slack Generator
SW.con = [ ...
%   B      Sb   Vb      V0 t0    Qmx    Qmi  Vmx   Vmi     Pg0  L    z    u
    1     100   69    1.06  0     10    -10  1.2   0.8    2.32  1    1    1;
];

%% PV Buses
PV.con = [
%   B      Sb   Vb    Pg     V0     Qmx     Qmi   Vmx    Vmi    L    u
    2     100   69    0.38   1.045  0.5    -0.4   1.2    0.8    1    1;
    6     100   13.8  0      1.07   0.24   -0.06  1.2    0.8    1    1;
    3     100   69    0      1.01   0.4     0     1.2    0.8    1    1;
    7     100   18    0      1.09   0.24   -0.06  1.2    0.8    1    1;
];


%% PQ Buses
lambda = 1.415;
PQ.con = [
%   B     Sb   Vb     Pl              Ql              Vma   Vmi z  u
   10    100   13.8   lambda*0.03325  lambda*0.01710  1.2  0.8  0  1;
   12    100   13.8   lambda*0.12825  lambda*0.05510  1.2  0.8  0  1;
    3    100   69     lambda*0.89490  lambda*0.18050  1.2  0.8  0  1;
    5    100   69     lambda*0.07220  lambda*0.01520  1.2  0.8  0  1;
    2    100   69     lambda*0.20615  lambda*0.12065  1.2  0.8  0  1;
    6    100   13.8   lambda*0.10640  lambda*0.07125  1.2  0.8  0  1;
    4    100   69     lambda*0.45410  lambda*0.03800  1.2  0.8  0  1;
   13    100   13.8   lambda*0.14155  lambda*0.04750  1.2  0.8  0  1;
   11    100   13.8   lambda*0.05795  lambda*0.01520  1.2  0.8  0  1;
    9    100   13.8   lambda*0.08550  lambda*0.05510  1.2  0.8  0  1;
    8    100   13.8   lambda*0.28025  lambda*0.15770  1.2  0.8  0  1;
];


%% Three winding transformer
Twt.con = [ ...
%   1     2     3      Sb    F   Vb1     Vb2  Vb3  r12   r13   r23         x12      x13      x23      a I1 I2 I3 P1 P2 P3 S1 S2 S3  u   
    4     8     7     100   60    69    13.8   18    0     0     0     0.31913  0.38527  0.28616  0.978  0  0  0  0  0  0  0  0  0  1;
];

%% Dynamic Components
Syn.con = [ ...
    1  615  69  60  5.2  0.2396  0  0.8979  0.2995  0.23  7.4  0.03  0.646  0.646  0.4  0  0.033  10.296  2  0  0  1  1  0  0  0;
    3  60  69  60  6  0  0.0031  1.05  0.185  0.13  6.1  0.04  0.98  0.36  0.13  0.3  0.099  13.08  2  0  0  1  1  0  0  0;
    2  60  69  60  6  0  0.0031  1.05  0.185  0.13  6.1  0.04  0.98  0.36  0.13  0.3  0.099  13.08  2  0  0  1  1  0  0  0;
    7  25  18  60  6  0.134  0.0014  1.25  0.232  0.12  4.75  0.06  1.22  0.715  0.12  1.5  0.21  10.12  2  0  0  1  1  0  0  0;
    6  25  13.8  60  6  0.134  0.0014  1.25  0.232  0.12  4.75  0.06  1.22  0.715  0.12  1.5  0.21  10.12  2  0  0  1  1  0  0  0;
];

Exc.con = [ ...
    1  2  7.32  0  300  0.02  0.002  1  1  0.2  0.001  0.0006  0.9;
    3  2  4.38  0  20  0.02  0.001  1  1  1.98  0.001  0.0006  0.9;
    2  2  4.38  0  20  0.02  0.001  1  1  1.98  0.001  0.0006  0.9;
    4  2  6.81  1.395  20  0.02  0.001  1  1  0.7  0.001  0.0006  0.9;
    5  2  6.81  1.395  20  0.02  0.001  1  1  0.7  0.001  0.0006  0.9;
];

%% Bus names
Bus.names = {... 
  'Bus 01'; 'Bus 02'; 'Bus 03'; 'Bus 04'; 'Bus 05'; 
  'Bus 06'; 'Bus 08'; 'Bus 09'; 'Bus 10'; 'Bus 11'; 
  'Bus 12'; 'Bus 13'; 'Bus 14'
};



